4A6V_IKY_A_1268


 21 22  0  0  0  0  0  0  0  0999 V2000
    9.9174    0.7000   -0.3401 C   0  0  0  0  0  0  0  0  0  0  0  0
   10.2872    1.1107    0.8882 N   0  0  0  0  0  0  0  0  0  0  0  0
    8.7185    0.1572   -0.3370 O   0  0  0  0  0  0  0  0  0  0  0  0
    8.2499    0.1875    0.8879 C   0  0  0  0  0  0  0  0  0  0  0  0
    9.2304    0.7833    1.6531 C   0  0  0  0  0  0  0  0  0  0  0  0
   11.6624   -0.1511   -2.0464 C   0  0  0  0  0  0  0  0  0  0  0  0
   12.3723    0.1090   -3.2316 C   0  0  0  0  0  0  0  0  0  0  0  0
   12.1899    1.2944   -3.9414 C   0  0  0  0  0  0  0  0  0  0  0  0
   11.2894    2.2479   -3.4776 C   0  0  0  0  0  0  0  0  0  0  0  0
   10.5734    2.0140   -2.3050 C   0  0  0  0  0  0  0  0  0  0  0  0
   10.7386    0.8283   -1.5713 C   0  0  0  0  0  0  0  0  0  0  0  0
   13.1223   -2.0031   -1.7879 F   0  0  0  0  0  0  0  0  0  0  0  0
   11.9274   -1.4650   -1.3460 C   0  0  0  0  0  0  0  0  0  0  0  0
   12.0209   -1.2891    0.0255 F   0  0  0  0  0  0  0  0  0  0  0  0
   10.8918   -2.3483   -1.5916 F   0  0  0  0  0  0  0  0  0  0  0  0
    9.1571    1.0358    3.0962 C   0  0  0  0  0  0  0  0  0  0  0  0
    8.3338    0.4005    3.8085 O   0  0  0  0  0  0  0  0  0  0  0  0
   10.0198    2.0026    3.6930 N   0  0  0  0  0  0  0  0  0  0  0  0
    9.9697    2.2521    5.0223 O   0  0  0  0  0  0  0  0  0  0  0  0
   10.6603    2.4950    3.1303 H   0  0  0  0  0  0  0  0  0  0  0  0
    9.2930    1.6903    5.4314 H   0  0  0  0  0  0  0  0  0  0  0  0
 12 13  1  0  0  0
 13 14  1  0  0  0
 13 15  1  0  0  0
 13  6  1  0  0  0
  6  7  2  0  0  0
  6 11  1  0  0  0
  7  8  1  0  0  0
  8  9  2  0  0  0
  9 10  1  0  0  0
 10 11  2  0  0  0
 11  1  1  0  0  0
  1  2  2  0  0  0
  1  3  1  0  0  0
  2  5  1  0  0  0
  3  4  1  0  0  0
  4  5  2  0  0  0
  5 16  1  0  0  0
 16 18  1  0  0  0
 17 16  2  0  0  0
 19 18  1  0  0  0
 18 20  1  0  0  0
 19 21  1  0  0  0
M  END
> <minimizedAffinity>
-8.90398

$$$$
4A6V_IKY_A_1268


 21 22  0  0  0  0  0  0  0  0999 V2000
   10.3024    0.4662   -0.7513 C   0  0  0  0  0  0  0  0  0  0  0  0
    9.7531    0.5786    0.4733 N   0  0  0  0  0  0  0  0  0  0  0  0
   10.9606   -0.6645   -0.8933 O   0  0  0  0  0  0  0  0  0  0  0  0
   10.8730   -1.3418    0.2267 C   0  0  0  0  0  0  0  0  0  0  0  0
   10.1185   -0.5647    1.0804 C   0  0  0  0  0  0  0  0  0  0  0  0
   11.2232    1.7705   -2.7840 C   0  0  0  0  0  0  0  0  0  0  0  0
   10.9812    2.7563   -3.7566 C   0  0  0  0  0  0  0  0  0  0  0  0
    9.7697    3.4433   -3.8075 C   0  0  0  0  0  0  0  0  0  0  0  0
    8.7713    3.1565   -2.8822 C   0  0  0  0  0  0  0  0  0  0  0  0
    8.9867    2.1834   -1.9080 C   0  0  0  0  0  0  0  0  0  0  0  0
   10.1978    1.4771   -1.8348 C   0  0  0  0  0  0  0  0  0  0  0  0
   12.4274   -0.2106   -3.2877 F   0  0  0  0  0  0  0  0  0  0  0  0
   12.5680    1.0790   -2.8081 C   0  0  0  0  0  0  0  0  0  0  0  0
   13.4573    1.7464   -3.6355 F   0  0  0  0  0  0  0  0  0  0  0  0
   13.1088    1.0536   -1.5354 F   0  0  0  0  0  0  0  0  0  0  0  0
    9.7522   -0.9114    2.4578 C   0  0  0  0  0  0  0  0  0  0  0  0
   10.0951   -2.0232    2.9427 O   0  0  0  0  0  0  0  0  0  0  0  0
    9.0065    0.0127    3.2486 N   0  0  0  0  0  0  0  0  0  0  0  0
    8.6575   -0.2858    4.5217 O   0  0  0  0  0  0  0  0  0  0  0  0
    8.7423    0.8791    2.8630 H   0  0  0  0  0  0  0  0  0  0  0  0
    8.9901   -1.1680    4.7498 H   0  0  0  0  0  0  0  0  0  0  0  0
 12 13  1  0  0  0
 13 14  1  0  0  0
 13 15  1  0  0  0
 13  6  1  0  0  0
  6  7  2  0  0  0
  6 11  1  0  0  0
  7  8  1  0  0  0
  8  9  2  0  0  0
  9 10  1  0  0  0
 10 11  2  0  0  0
 11  1  1  0  0  0
  1  2  2  0  0  0
  1  3  1  0  0  0
  2  5  1  0  0  0
  3  4  1  0  0  0
  4  5  2  0  0  0
  5 16  1  0  0  0
 16 18  1  0  0  0
 17 16  2  0  0  0
 19 18  1  0  0  0
 18 20  1  0  0  0
 19 21  1  0  0  0
M  END
> <minimizedAffinity>
-8.55654

$$$$
4A6V_IKY_A_1268


 21 22  0  0  0  0  0  0  0  0999 V2000
    8.3642    1.6993    0.3341 C   0  0  0  0  0  0  0  0  0  0  0  0
    8.2893    2.4527    1.4480 N   0  0  0  0  0  0  0  0  0  0  0  0
    7.3462    1.9113   -0.4725 O   0  0  0  0  0  0  0  0  0  0  0  0
    6.5612    2.8095    0.0734 C   0  0  0  0  0  0  0  0  0  0  0  0
    7.1508    3.1474    1.2734 C   0  0  0  0  0  0  0  0  0  0  0  0
    9.9056   -0.2983    0.8950 C   0  0  0  0  0  0  0  0  0  0  0  0
   10.9462   -1.1386    0.4623 C   0  0  0  0  0  0  0  0  0  0  0  0
   11.5331   -0.9798   -0.7918 C   0  0  0  0  0  0  0  0  0  0  0  0
   11.0886    0.0276   -1.6421 C   0  0  0  0  0  0  0  0  0  0  0  0
   10.0583    0.8739   -1.2364 C   0  0  0  0  0  0  0  0  0  0  0  0
    9.4503    0.7353    0.0215 C   0  0  0  0  0  0  0  0  0  0  0  0
    7.9535   -0.6402    2.1991 F   0  0  0  0  0  0  0  0  0  0  0  0
    9.3314   -0.5477    2.2717 C   0  0  0  0  0  0  0  0  0  0  0  0
    9.8104   -1.7341    2.8045 F   0  0  0  0  0  0  0  0  0  0  0  0
    9.6918    0.4781    3.1265 F   0  0  0  0  0  0  0  0  0  0  0  0
    6.6321    4.1217    2.2395 C   0  0  0  0  0  0  0  0  0  0  0  0
    5.7486    4.9500    1.8903 O   0  0  0  0  0  0  0  0  0  0  0  0
    7.1296    4.1303    3.5766 N   0  0  0  0  0  0  0  0  0  0  0  0
    6.6657    5.0200    4.4849 O   0  0  0  0  0  0  0  0  0  0  0  0
    7.8197    3.4803    3.8421 H   0  0  0  0  0  0  0  0  0  0  0  0
    5.9957    5.5857    4.0703 H   0  0  0  0  0  0  0  0  0  0  0  0
 12 13  1  0  0  0
 13 14  1  0  0  0
 13 15  1  0  0  0
 13  6  1  0  0  0
  6  7  2  0  0  0
  6 11  1  0  0  0
  7  8  1  0  0  0
  8  9  2  0  0  0
  9 10  1  0  0  0
 10 11  2  0  0  0
 11  1  1  0  0  0
  1  2  2  0  0  0
  1  3  1  0  0  0
  2  5  1  0  0  0
  3  4  1  0  0  0
  4  5  2  0  0  0
  5 16  1  0  0  0
 16 18  1  0  0  0
 17 16  2  0  0  0
 19 18  1  0  0  0
 18 20  1  0  0  0
 19 21  1  0  0  0
M  END
> <minimizedAffinity>
-7.95565

$$$$
4A6V_IKY_A_1268


 21 22  0  0  0  0  0  0  0  0999 V2000
    8.9727    1.7990   -1.0674 C   0  0  0  0  0  0  0  0  0  0  0  0
    8.9162    2.0480    0.2551 N   0  0  0  0  0  0  0  0  0  0  0  0
    7.7972    1.9329   -1.6438 O   0  0  0  0  0  0  0  0  0  0  0  0
    6.9206    2.2743   -0.7295 C   0  0  0  0  0  0  0  0  0  0  0  0
    7.6202    2.3461    0.4568 C   0  0  0  0  0  0  0  0  0  0  0  0
   10.9308    0.2071   -1.6268 C   0  0  0  0  0  0  0  0  0  0  0  0
   12.0744   -0.0197   -2.4123 C   0  0  0  0  0  0  0  0  0  0  0  0
   12.4974    0.9075   -3.3628 C   0  0  0  0  0  0  0  0  0  0  0  0
   11.7815    2.0859   -3.5475 C   0  0  0  0  0  0  0  0  0  0  0  0
   10.6442    2.3344   -2.7812 C   0  0  0  0  0  0  0  0  0  0  0  0
   10.1968    1.4169   -1.8172 C   0  0  0  0  0  0  0  0  0  0  0  0
   11.1154   -0.5693    0.6073 F   0  0  0  0  0  0  0  0  0  0  0  0
   10.5499   -0.8567   -0.6217 C   0  0  0  0  0  0  0  0  0  0  0  0
    9.1754   -0.9158   -0.4546 F   0  0  0  0  0  0  0  0  0  0  0  0
   10.9784   -2.0963   -1.0608 F   0  0  0  0  0  0  0  0  0  0  0  0
    7.0565    2.6952    1.7652 C   0  0  0  0  0  0  0  0  0  0  0  0
    6.2552    1.9092    2.3388 O   0  0  0  0  0  0  0  0  0  0  0  0
    7.4167    3.9270    2.3882 N   0  0  0  0  0  0  0  0  0  0  0  0
    6.9090    4.2698    3.5951 O   0  0  0  0  0  0  0  0  0  0  0  0
    8.0431    4.5359    1.9342 H   0  0  0  0  0  0  0  0  0  0  0  0
    6.3134    3.5701    3.9058 H   0  0  0  0  0  0  0  0  0  0  0  0
 12 13  1  0  0  0
 13 14  1  0  0  0
 13 15  1  0  0  0
 13  6  1  0  0  0
  6  7  2  0  0  0
  6 11  1  0  0  0
  7  8  1  0  0  0
  8  9  2  0  0  0
  9 10  1  0  0  0
 10 11  2  0  0  0
 11  1  1  0  0  0
  1  2  2  0  0  0
  1  3  1  0  0  0
  2  5  1  0  0  0
  3  4  1  0  0  0
  4  5  2  0  0  0
  5 16  1  0  0  0
 16 18  1  0  0  0
 17 16  2  0  0  0
 19 18  1  0  0  0
 18 20  1  0  0  0
 19 21  1  0  0  0
M  END
> <minimizedAffinity>
-7.84376

$$$$
4A6V_IKY_A_1268


 21 22  0  0  0  0  0  0  0  0999 V2000
    8.0182    2.9086    1.0093 C   0  0  0  0  0  0  0  0  0  0  0  0
    7.9553    1.5929    1.2906 N   0  0  0  0  0  0  0  0  0  0  0  0
    8.7342    3.5674    1.8954 O   0  0  0  0  0  0  0  0  0  0  0  0
    9.1713    2.7173    2.7939 C   0  0  0  0  0  0  0  0  0  0  0  0
    8.6844    1.4838    2.4157 C   0  0  0  0  0  0  0  0  0  0  0  0
    6.1286    4.2738   -0.1072 C   0  0  0  0  0  0  0  0  0  0  0  0
    5.6360    4.8507   -1.2907 C   0  0  0  0  0  0  0  0  0  0  0  0
    6.3329    4.7470   -2.4931 C   0  0  0  0  0  0  0  0  0  0  0  0
    7.5422    4.0608   -2.5359 C   0  0  0  0  0  0  0  0  0  0  0  0
    8.0520    3.4798   -1.3761 C   0  0  0  0  0  0  0  0  0  0  0  0
    7.3699    3.5697   -0.1523 C   0  0  0  0  0  0  0  0  0  0  0  0
    4.7791    3.2181    1.5337 F   0  0  0  0  0  0  0  0  0  0  0  0
    5.3021    4.4391    1.1485 C   0  0  0  0  0  0  0  0  0  0  0  0
    6.0741    4.9205    2.1940 F   0  0  0  0  0  0  0  0  0  0  0  0
    4.2788    5.3423    0.9249 F   0  0  0  0  0  0  0  0  0  0  0  0
    8.9136    0.2182    3.1209 C   0  0  0  0  0  0  0  0  0  0  0  0
    8.3727    0.0110    4.2404 O   0  0  0  0  0  0  0  0  0  0  0  0
    9.7505   -0.7788    2.5373 N   0  0  0  0  0  0  0  0  0  0  0  0
    9.9762   -1.9539    3.1698 O   0  0  0  0  0  0  0  0  0  0  0  0
   10.1696   -0.6099    1.6626 H   0  0  0  0  0  0  0  0  0  0  0  0
    9.4961   -1.9648    4.0126 H   0  0  0  0  0  0  0  0  0  0  0  0
 12 13  1  0  0  0
 13 14  1  0  0  0
 13 15  1  0  0  0
 13  6  1  0  0  0
  6  7  2  0  0  0
  6 11  1  0  0  0
  7  8  1  0  0  0
  8  9  2  0  0  0
  9 10  1  0  0  0
 10 11  2  0  0  0
 11  1  1  0  0  0
  1  2  2  0  0  0
  1  3  1  0  0  0
  2  5  1  0  0  0
  3  4  1  0  0  0
  4  5  2  0  0  0
  5 16  1  0  0  0
 16 18  1  0  0  0
 17 16  2  0  0  0
 19 18  1  0  0  0
 18 20  1  0  0  0
 19 21  1  0  0  0
M  END
> <minimizedAffinity>
-7.65199

$$$$
4A6V_IKY_A_1268


 21 22  0  0  0  0  0  0  0  0999 V2000
    7.5195    3.0839    1.5474 C   0  0  0  0  0  0  0  0  0  0  0  0
    7.4097    1.7840    1.8826 N   0  0  0  0  0  0  0  0  0  0  0  0
    8.6084    3.6300    2.0454 O   0  0  0  0  0  0  0  0  0  0  0  0
    9.2590    2.7170    2.7266 C   0  0  0  0  0  0  0  0  0  0  0  0
    8.5097    1.5638    2.6247 C   0  0  0  0  0  0  0  0  0  0  0  0
    6.4655    3.7832   -0.7067 C   0  0  0  0  0  0  0  0  0  0  0  0
    5.4912    4.5587   -1.3591 C   0  0  0  0  0  0  0  0  0  0  0  0
    4.6146    5.3734   -0.6450 C   0  0  0  0  0  0  0  0  0  0  0  0
    4.6956    5.4292    0.7427 C   0  0  0  0  0  0  0  0  0  0  0  0
    5.6529    4.6699    1.4131 C   0  0  0  0  0  0  0  0  0  0  0  0
    6.5477    3.8412    0.7175 C   0  0  0  0  0  0  0  0  0  0  0  0
    7.1301    1.5904   -1.3216 F   0  0  0  0  0  0  0  0  0  0  0  0
    7.3715    2.9300   -1.5660 C   0  0  0  0  0  0  0  0  0  0  0  0
    7.1467    3.1642   -2.9134 F   0  0  0  0  0  0  0  0  0  0  0  0
    8.6951    3.2284   -1.2978 F   0  0  0  0  0  0  0  0  0  0  0  0
    8.8416    0.2690    3.2289 C   0  0  0  0  0  0  0  0  0  0  0  0
    8.3860   -0.0346    4.3642 O   0  0  0  0  0  0  0  0  0  0  0  0
    9.6819   -0.6471    2.5289 N   0  0  0  0  0  0  0  0  0  0  0  0
   10.0014   -1.8472    3.0669 O   0  0  0  0  0  0  0  0  0  0  0  0
   10.0340   -0.4030    1.6425 H   0  0  0  0  0  0  0  0  0  0  0  0
    9.5792   -1.9347    3.9358 H   0  0  0  0  0  0  0  0  0  0  0  0
 12 13  1  0  0  0
 13 14  1  0  0  0
 13 15  1  0  0  0
 13  6  1  0  0  0
  6  7  2  0  0  0
  6 11  1  0  0  0
  7  8  1  0  0  0
  8  9  2  0  0  0
  9 10  1  0  0  0
 10 11  2  0  0  0
 11  1  1  0  0  0
  1  2  2  0  0  0
  1  3  1  0  0  0
  2  5  1  0  0  0
  3  4  1  0  0  0
  4  5  2  0  0  0
  5 16  1  0  0  0
 16 18  1  0  0  0
 17 16  2  0  0  0
 19 18  1  0  0  0
 18 20  1  0  0  0
 19 21  1  0  0  0
M  END
> <minimizedAffinity>
-7.50765

$$$$
4A6V_IKY_A_1268


 21 22  0  0  0  0  0  0  0  0999 V2000
    8.3862    1.0114    1.0981 C   0  0  0  0  0  0  0  0  0  0  0  0
    9.5879    0.4462    0.8737 N   0  0  0  0  0  0  0  0  0  0  0  0
    7.7687    0.4637    2.1231 O   0  0  0  0  0  0  0  0  0  0  0  0
    8.5342   -0.4812    2.6151 C   0  0  0  0  0  0  0  0  0  0  0  0
    9.6708   -0.4919    1.8341 C   0  0  0  0  0  0  0  0  0  0  0  0
    7.1704    3.2793    0.8542 C   0  0  0  0  0  0  0  0  0  0  0  0
    6.6572    4.2502   -0.0235 C   0  0  0  0  0  0  0  0  0  0  0  0
    6.7507    4.1005   -1.4059 C   0  0  0  0  0  0  0  0  0  0  0  0
    7.3623    2.9712   -1.9406 C   0  0  0  0  0  0  0  0  0  0  0  0
    7.8790    1.9941   -1.0916 C   0  0  0  0  0  0  0  0  0  0  0  0
    7.7978    2.1207    0.3043 C   0  0  0  0  0  0  0  0  0  0  0  0
    6.4545    4.7720    2.5535 F   0  0  0  0  0  0  0  0  0  0  0  0
    7.0221    3.5294    2.3383 C   0  0  0  0  0  0  0  0  0  0  0  0
    6.2013    2.5790    2.9247 F   0  0  0  0  0  0  0  0  0  0  0  0
    8.2585    3.4615    2.9545 F   0  0  0  0  0  0  0  0  0  0  0  0
   10.8202   -1.3871    2.0045 C   0  0  0  0  0  0  0  0  0  0  0  0
   11.8312   -1.2670    1.2614 O   0  0  0  0  0  0  0  0  0  0  0  0
   10.7920   -2.3951    3.0136 N   0  0  0  0  0  0  0  0  0  0  0  0
   11.8409   -3.2323    3.1889 O   0  0  0  0  0  0  0  0  0  0  0  0
    9.9989   -2.4830    3.5903 H   0  0  0  0  0  0  0  0  0  0  0  0
   12.5365   -3.0177    2.5479 H   0  0  0  0  0  0  0  0  0  0  0  0
 12 13  1  0  0  0
 13 14  1  0  0  0
 13 15  1  0  0  0
 13  6  1  0  0  0
  6  7  2  0  0  0
  6 11  1  0  0  0
  7  8  1  0  0  0
  8  9  2  0  0  0
  9 10  1  0  0  0
 10 11  2  0  0  0
 11  1  1  0  0  0
  1  2  2  0  0  0
  1  3  1  0  0  0
  2  5  1  0  0  0
  3  4  1  0  0  0
  4  5  2  0  0  0
  5 16  1  0  0  0
 16 18  1  0  0  0
 17 16  2  0  0  0
 19 18  1  0  0  0
 18 20  1  0  0  0
 19 21  1  0  0  0
M  END
> <minimizedAffinity>
-7.49424

$$$$
4A6V_IKY_A_1268


 21 22  0  0  0  0  0  0  0  0999 V2000
    9.1304    1.7256   -1.1091 C   0  0  0  0  0  0  0  0  0  0  0  0
    7.9243    1.9943   -1.6449 N   0  0  0  0  0  0  0  0  0  0  0  0
    9.1209    1.8329    0.2025 O   0  0  0  0  0  0  0  0  0  0  0  0
    7.9135    2.1752    0.5844 C   0  0  0  0  0  0  0  0  0  0  0  0
    7.1662    2.2760   -0.5702 C   0  0  0  0  0  0  0  0  0  0  0  0
   11.0362    0.1059   -1.7614 C   0  0  0  0  0  0  0  0  0  0  0  0
   12.1769   -0.1094   -2.5543 C   0  0  0  0  0  0  0  0  0  0  0  0
   12.6385    0.8621   -3.4404 C   0  0  0  0  0  0  0  0  0  0  0  0
   11.9651    2.0743   -3.5516 C   0  0  0  0  0  0  0  0  0  0  0  0
   10.8316    2.3122   -2.7763 C   0  0  0  0  0  0  0  0  0  0  0  0
   10.3459    1.3504   -1.8762 C   0  0  0  0  0  0  0  0  0  0  0  0
   11.1775   -0.8194    0.4186 F   0  0  0  0  0  0  0  0  0  0  0  0
   10.6116   -1.0069   -0.8294 C   0  0  0  0  0  0  0  0  0  0  0  0
    9.2347   -1.0290   -0.6736 F   0  0  0  0  0  0  0  0  0  0  0  0
   11.0006   -2.2296   -1.3458 F   0  0  0  0  0  0  0  0  0  0  0  0
    5.7463    2.6368   -0.6440 C   0  0  0  0  0  0  0  0  0  0  0  0
    5.2247    3.3411    0.2618 O   0  0  0  0  0  0  0  0  0  0  0  0
    4.9558    2.1888   -1.7438 N   0  0  0  0  0  0  0  0  0  0  0  0
    3.6439    2.5094   -1.8328 O   0  0  0  0  0  0  0  0  0  0  0  0
    5.3701    1.6390   -2.4476 H   0  0  0  0  0  0  0  0  0  0  0  0
    3.3907    3.0503   -1.0684 H   0  0  0  0  0  0  0  0  0  0  0  0
 12 13  1  0  0  0
 13 14  1  0  0  0
 13 15  1  0  0  0
 13  6  1  0  0  0
  6  7  2  0  0  0
  6 11  1  0  0  0
  7  8  1  0  0  0
  8  9  2  0  0  0
  9 10  1  0  0  0
 10 11  2  0  0  0
 11  1  1  0  0  0
  1  2  2  0  0  0
  1  3  1  0  0  0
  2  5  1  0  0  0
  3  4  1  0  0  0
  4  5  2  0  0  0
  5 16  1  0  0  0
 16 18  1  0  0  0
 17 16  2  0  0  0
 19 18  1  0  0  0
 18 20  1  0  0  0
 19 21  1  0  0  0
M  END
> <minimizedAffinity>
-7.47875

$$$$
4A6V_IKY_A_1268


 21 22  0  0  0  0  0  0  0  0999 V2000
    9.7301    0.8473   -0.4834 C   0  0  0  0  0  0  0  0  0  0  0  0
    8.7891    1.7526   -0.1531 N   0  0  0  0  0  0  0  0  0  0  0  0
    9.7566   -0.1640    0.3584 O   0  0  0  0  0  0  0  0  0  0  0  0
    8.8383    0.0315    1.2746 C   0  0  0  0  0  0  0  0  0  0  0  0
    8.2341    1.2291    0.9547 C   0  0  0  0  0  0  0  0  0  0  0  0
   11.6144   -0.0347   -2.0170 C   0  0  0  0  0  0  0  0  0  0  0  0
   12.4129    0.1961   -3.1508 C   0  0  0  0  0  0  0  0  0  0  0  0
   12.2735    1.3546   -3.9127 C   0  0  0  0  0  0  0  0  0  0  0  0
   11.3282    2.3101   -3.5540 C   0  0  0  0  0  0  0  0  0  0  0  0
   10.5243    2.1048   -2.4341 C   0  0  0  0  0  0  0  0  0  0  0  0
   10.6446    0.9466   -1.6497 C   0  0  0  0  0  0  0  0  0  0  0  0
   10.7519   -2.1613   -1.4151 F   0  0  0  0  0  0  0  0  0  0  0  0
   11.8384   -1.3209   -1.2535 C   0  0  0  0  0  0  0  0  0  0  0  0
   12.9633   -1.9857   -1.7153 F   0  0  0  0  0  0  0  0  0  0  0  0
   12.0280   -1.0463    0.0887 F   0  0  0  0  0  0  0  0  0  0  0  0
    7.1407    1.8638    1.6986 C   0  0  0  0  0  0  0  0  0  0  0  0
    7.1881    1.9332    2.9562 O   0  0  0  0  0  0  0  0  0  0  0  0
    6.0224    2.4030    0.9958 N   0  0  0  0  0  0  0  0  0  0  0  0
    5.0023    2.9930    1.6613 O   0  0  0  0  0  0  0  0  0  0  0  0
    5.9924    2.3450    0.0134 H   0  0  0  0  0  0  0  0  0  0  0  0
    5.1815    2.9697    2.6143 H   0  0  0  0  0  0  0  0  0  0  0  0
 12 13  1  0  0  0
 13 14  1  0  0  0
 13 15  1  0  0  0
 13  6  1  0  0  0
  6  7  2  0  0  0
  6 11  1  0  0  0
  7  8  1  0  0  0
  8  9  2  0  0  0
  9 10  1  0  0  0
 10 11  2  0  0  0
 11  1  1  0  0  0
  1  2  2  0  0  0
  1  3  1  0  0  0
  2  5  1  0  0  0
  3  4  1  0  0  0
  4  5  2  0  0  0
  5 16  1  0  0  0
 16 18  1  0  0  0
 17 16  2  0  0  0
 19 18  1  0  0  0
 18 20  1  0  0  0
 19 21  1  0  0  0
M  END
> <minimizedAffinity>
-7.45215

$$$$
4A6V_IKY_A_1268


 21 22  0  0  0  0  0  0  0  0999 V2000
    8.2092    2.2432    0.9665 C   0  0  0  0  0  0  0  0  0  0  0  0
    6.8842    2.3154    0.7359 N   0  0  0  0  0  0  0  0  0  0  0  0
    8.6372    3.2517    1.6957 O   0  0  0  0  0  0  0  0  0  0  0  0
    7.6168    4.0273    1.9751 C   0  0  0  0  0  0  0  0  0  0  0  0
    6.5217    3.4420    1.3751 C   0  0  0  0  0  0  0  0  0  0  0  0
    9.4537   -0.0102    1.1999 C   0  0  0  0  0  0  0  0  0  0  0  0
   10.3202   -0.9425    0.6029 C   0  0  0  0  0  0  0  0  0  0  0  0
   10.8413   -0.7352   -0.6729 C   0  0  0  0  0  0  0  0  0  0  0  0
   10.5047    0.4142   -1.3805 C   0  0  0  0  0  0  0  0  0  0  0  0
    9.6476    1.3539   -0.8106 C   0  0  0  0  0  0  0  0  0  0  0  0
    9.1090    1.1693    0.4728 C   0  0  0  0  0  0  0  0  0  0  0  0
    9.2155    0.7306    3.4410 F   0  0  0  0  0  0  0  0  0  0  0  0
    8.9391   -0.3218    2.5874 C   0  0  0  0  0  0  0  0  0  0  0  0
    7.5665   -0.5138    2.5788 F   0  0  0  0  0  0  0  0  0  0  0  0
    9.5274   -1.4808    3.0600 F   0  0  0  0  0  0  0  0  0  0  0  0
    5.1474    3.9535    1.4130 C   0  0  0  0  0  0  0  0  0  0  0  0
    4.9306    5.1917    1.3206 O   0  0  0  0  0  0  0  0  0  0  0  0
    4.0555    3.0465    1.5549 N   0  0  0  0  0  0  0  0  0  0  0  0
    2.7793    3.4958    1.5923 O   0  0  0  0  0  0  0  0  0  0  0  0
    4.2325    2.0807    1.6265 H   0  0  0  0  0  0  0  0  0  0  0  0
    2.7743    4.4623    1.5104 H   0  0  0  0  0  0  0  0  0  0  0  0
 12 13  1  0  0  0
 13 14  1  0  0  0
 13 15  1  0  0  0
 13  6  1  0  0  0
  6  7  2  0  0  0
  6 11  1  0  0  0
  7  8  1  0  0  0
  8  9  2  0  0  0
  9 10  1  0  0  0
 10 11  2  0  0  0
 11  1  1  0  0  0
  1  2  2  0  0  0
  1  3  1  0  0  0
  2  5  1  0  0  0
  3  4  1  0  0  0
  4  5  2  0  0  0
  5 16  1  0  0  0
 16 18  1  0  0  0
 17 16  2  0  0  0
 19 18  1  0  0  0
 18 20  1  0  0  0
 19 21  1  0  0  0
M  END
> <minimizedAffinity>
-7.44688

$$$$
4A6V_IKY_A_1268


 21 22  0  0  0  0  0  0  0  0999 V2000
    8.4018    1.6453   -0.1487 C   0  0  0  0  0  0  0  0  0  0  0  0
    7.3059    1.6147   -0.9311 N   0  0  0  0  0  0  0  0  0  0  0  0
    8.3890    2.6710    0.6758 O   0  0  0  0  0  0  0  0  0  0  0  0
    7.2890    3.3562    0.4725 C   0  0  0  0  0  0  0  0  0  0  0  0
    6.6126    2.6959   -0.5316 C   0  0  0  0  0  0  0  0  0  0  0  0
    9.8572   -0.2259    0.8814 C   0  0  0  0  0  0  0  0  0  0  0  0
   10.9350   -1.1106    0.7026 C   0  0  0  0  0  0  0  0  0  0  0  0
   11.6613   -1.1382   -0.4865 C   0  0  0  0  0  0  0  0  0  0  0  0
   11.3225   -0.2774   -1.5254 C   0  0  0  0  0  0  0  0  0  0  0  0
   10.2580    0.6092   -1.3729 C   0  0  0  0  0  0  0  0  0  0  0  0
    9.5103    0.6572   -0.1855 C   0  0  0  0  0  0  0  0  0  0  0  0
    9.3991    0.8776    2.9309 F   0  0  0  0  0  0  0  0  0  0  0  0
    9.1290   -0.2689    2.2062 C   0  0  0  0  0  0  0  0  0  0  0  0
    7.7577   -0.3415    2.0195 F   0  0  0  0  0  0  0  0  0  0  0  0
    9.5199   -1.3847    2.9239 F   0  0  0  0  0  0  0  0  0  0  0  0
    5.3207    3.0940   -1.1010 C   0  0  0  0  0  0  0  0  0  0  0  0
    4.8765    4.2579   -0.9089 O   0  0  0  0  0  0  0  0  0  0  0  0
    4.5669    2.1609   -1.8732 N   0  0  0  0  0  0  0  0  0  0  0  0
    3.3725    2.5062   -2.4082 O   0  0  0  0  0  0  0  0  0  0  0  0
    4.9202    1.2536   -2.0190 H   0  0  0  0  0  0  0  0  0  0  0  0
    3.1675    3.4252   -2.1753 H   0  0  0  0  0  0  0  0  0  0  0  0
 12 13  1  0  0  0
 13 14  1  0  0  0
 13 15  1  0  0  0
 13  6  1  0  0  0
  6  7  2  0  0  0
  6 11  1  0  0  0
  7  8  1  0  0  0
  8  9  2  0  0  0
  9 10  1  0  0  0
 10 11  2  0  0  0
 11  1  1  0  0  0
  1  2  2  0  0  0
  1  3  1  0  0  0
  2  5  1  0  0  0
  3  4  1  0  0  0
  4  5  2  0  0  0
  5 16  1  0  0  0
 16 18  1  0  0  0
 17 16  2  0  0  0
 19 18  1  0  0  0
 18 20  1  0  0  0
 19 21  1  0  0  0
M  END
> <minimizedAffinity>
-7.15451

$$$$
4A6V_IKY_A_1268


 21 22  0  0  0  0  0  0  0  0999 V2000
    8.0074    1.8660    0.0950 C   0  0  0  0  0  0  0  0  0  0  0  0
    8.2700    0.9368    1.0340 N   0  0  0  0  0  0  0  0  0  0  0  0
    8.9228    1.8823   -0.8504 O   0  0  0  0  0  0  0  0  0  0  0  0
    9.8230    0.9685   -0.5753 C   0  0  0  0  0  0  0  0  0  0  0  0
    9.4148    0.3781    0.6022 C   0  0  0  0  0  0  0  0  0  0  0  0
    6.5534    3.7506    1.1025 C   0  0  0  0  0  0  0  0  0  0  0  0
    5.4029    4.5473    0.9690 C   0  0  0  0  0  0  0  0  0  0  0  0
    4.5439    4.4047   -0.1191 C   0  0  0  0  0  0  0  0  0  0  0  0
    4.8198    3.4577   -1.1001 C   0  0  0  0  0  0  0  0  0  0  0  0
    5.9542    2.6554   -0.9907 C   0  0  0  0  0  0  0  0  0  0  0  0
    6.8356    2.7790    0.0952 C   0  0  0  0  0  0  0  0  0  0  0  0
    8.6484    4.4944    1.9309 F   0  0  0  0  0  0  0  0  0  0  0  0
    7.4249    3.9781    2.3174 C   0  0  0  0  0  0  0  0  0  0  0  0
    6.8383    4.8808    3.1901 F   0  0  0  0  0  0  0  0  0  0  0  0
    7.6079    2.7875    2.9970 F   0  0  0  0  0  0  0  0  0  0  0  0
   10.1104   -0.7058    1.3043 C   0  0  0  0  0  0  0  0  0  0  0  0
   11.1063   -1.2668    0.7730 O   0  0  0  0  0  0  0  0  0  0  0  0
    9.6576   -1.1245    2.5907 N   0  0  0  0  0  0  0  0  0  0  0  0
   10.2838   -2.1223    3.2570 O   0  0  0  0  0  0  0  0  0  0  0  0
    8.8790   -0.6816    2.9994 H   0  0  0  0  0  0  0  0  0  0  0  0
   11.0249   -2.4513    2.7245 H   0  0  0  0  0  0  0  0  0  0  0  0
 12 13  1  0  0  0
 13 14  1  0  0  0
 13 15  1  0  0  0
 13  6  1  0  0  0
  6  7  2  0  0  0
  6 11  1  0  0  0
  7  8  1  0  0  0
  8  9  2  0  0  0
  9 10  1  0  0  0
 10 11  2  0  0  0
 11  1  1  0  0  0
  1  2  2  0  0  0
  1  3  1  0  0  0
  2  5  1  0  0  0
  3  4  1  0  0  0
  4  5  2  0  0  0
  5 16  1  0  0  0
 16 18  1  0  0  0
 17 16  2  0  0  0
 19 18  1  0  0  0
 18 20  1  0  0  0
 19 21  1  0  0  0
M  END
> <minimizedAffinity>
-7.09837

$$$$
4A6V_IKY_A_1268


 21 22  0  0  0  0  0  0  0  0999 V2000
    6.0359    3.0160    1.3773 C   0  0  0  0  0  0  0  0  0  0  0  0
    6.6135    1.8296    1.6472 N   0  0  0  0  0  0  0  0  0  0  0  0
    6.6641    4.0134    1.9626 O   0  0  0  0  0  0  0  0  0  0  0  0
    7.6776    3.5283    2.6398 C   0  0  0  0  0  0  0  0  0  0  0  0
    7.6456    2.1638    2.4425 C   0  0  0  0  0  0  0  0  0  0  0  0
    4.8563    3.4372   -0.8836 C   0  0  0  0  0  0  0  0  0  0  0  0
    3.6353    3.6057   -1.5597 C   0  0  0  0  0  0  0  0  0  0  0  0
    2.4182    3.5561   -0.8826 C   0  0  0  0  0  0  0  0  0  0  0  0
    2.3980    3.3362    0.4909 C   0  0  0  0  0  0  0  0  0  0  0  0
    3.5951    3.1662    1.1842 C   0  0  0  0  0  0  0  0  0  0  0  0
    4.8344    3.2116    0.5260 C   0  0  0  0  0  0  0  0  0  0  0  0
    5.8166    3.7173   -3.0348 F   0  0  0  0  0  0  0  0  0  0  0  0
    6.1253    3.5071   -1.7032 C   0  0  0  0  0  0  0  0  0  0  0  0
    6.9333    4.5520   -1.2834 F   0  0  0  0  0  0  0  0  0  0  0  0
    6.8426    2.3328   -1.5641 F   0  0  0  0  0  0  0  0  0  0  0  0
    8.5895    1.1932    3.0070 C   0  0  0  0  0  0  0  0  0  0  0  0
    9.8145    1.2607    2.7182 O   0  0  0  0  0  0  0  0  0  0  0  0
    8.1183    0.1716    3.8843 N   0  0  0  0  0  0  0  0  0  0  0  0
    8.9709   -0.7346    4.4169 O   0  0  0  0  0  0  0  0  0  0  0  0
    7.1601    0.1252    4.1053 H   0  0  0  0  0  0  0  0  0  0  0  0
    9.8712   -0.5542    4.1040 H   0  0  0  0  0  0  0  0  0  0  0  0
 12 13  1  0  0  0
 13 14  1  0  0  0
 13 15  1  0  0  0
 13  6  1  0  0  0
  6  7  2  0  0  0
  6 11  1  0  0  0
  7  8  1  0  0  0
  8  9  2  0  0  0
  9 10  1  0  0  0
 10 11  2  0  0  0
 11  1  1  0  0  0
  1  2  2  0  0  0
  1  3  1  0  0  0
  2  5  1  0  0  0
  3  4  1  0  0  0
  4  5  2  0  0  0
  5 16  1  0  0  0
 16 18  1  0  0  0
 17 16  2  0  0  0
 19 18  1  0  0  0
 18 20  1  0  0  0
 19 21  1  0  0  0
M  END
> <minimizedAffinity>
-7.07890

$$$$
4A6V_IKY_A_1268


 21 22  0  0  0  0  0  0  0  0999 V2000
    7.9823    3.0268    0.7185 C   0  0  0  0  0  0  0  0  0  0  0  0
    8.7977    3.5810    1.6361 N   0  0  0  0  0  0  0  0  0  0  0  0
    7.9338    1.7165    0.8311 O   0  0  0  0  0  0  0  0  0  0  0  0
    8.7118    1.3538    1.8232 C   0  0  0  0  0  0  0  0  0  0  0  0
    9.2514    2.5192    2.3258 C   0  0  0  0  0  0  0  0  0  0  0  0
    5.9400    4.3818   -0.1024 C   0  0  0  0  0  0  0  0  0  0  0  0
    5.3313    5.0588   -1.1735 C   0  0  0  0  0  0  0  0  0  0  0  0
    5.9466    5.1448   -2.4210 C   0  0  0  0  0  0  0  0  0  0  0  0
    7.1890    4.5524   -2.6230 C   0  0  0  0  0  0  0  0  0  0  0  0
    7.8133    3.8753   -1.5769 C   0  0  0  0  0  0  0  0  0  0  0  0
    7.2150    3.7741   -0.3108 C   0  0  0  0  0  0  0  0  0  0  0  0
    5.9644    4.9177    2.2086 F   0  0  0  0  0  0  0  0  0  0  0  0
    5.1957    4.3417    1.2136 C   0  0  0  0  0  0  0  0  0  0  0  0
    4.0045    5.0456    1.1345 F   0  0  0  0  0  0  0  0  0  0  0  0
    4.8950    3.0334    1.5463 F   0  0  0  0  0  0  0  0  0  0  0  0
   10.1880    2.6152    3.4506 C   0  0  0  0  0  0  0  0  0  0  0  0
    9.7530    2.7319    4.6278 O   0  0  0  0  0  0  0  0  0  0  0  0
   11.5936    2.5765    3.2098 N   0  0  0  0  0  0  0  0  0  0  0  0
   12.4763    2.6634    4.2321 O   0  0  0  0  0  0  0  0  0  0  0  0
   11.9260    2.4852    2.2876 H   0  0  0  0  0  0  0  0  0  0  0  0
   11.9940    2.7483    5.0694 H   0  0  0  0  0  0  0  0  0  0  0  0
 12 13  1  0  0  0
 13 14  1  0  0  0
 13 15  1  0  0  0
 13  6  1  0  0  0
  6  7  2  0  0  0
  6 11  1  0  0  0
  7  8  1  0  0  0
  8  9  2  0  0  0
  9 10  1  0  0  0
 10 11  2  0  0  0
 11  1  1  0  0  0
  1  2  2  0  0  0
  1  3  1  0  0  0
  2  5  1  0  0  0
  3  4  1  0  0  0
  4  5  2  0  0  0
  5 16  1  0  0  0
 16 18  1  0  0  0
 17 16  2  0  0  0
 19 18  1  0  0  0
 18 20  1  0  0  0
 19 21  1  0  0  0
M  END
> <minimizedAffinity>
-7.03311

$$$$
4A6V_IKY_A_1268


 21 22  0  0  0  0  0  0  0  0999 V2000
    6.9024    3.3907    1.3833 C   0  0  0  0  0  0  0  0  0  0  0  0
    8.1375    3.7049    1.8192 N   0  0  0  0  0  0  0  0  0  0  0  0
    6.4969    2.2289    1.8499 O   0  0  0  0  0  0  0  0  0  0  0  0
    7.4434    1.7309    2.6094 C   0  0  0  0  0  0  0  0  0  0  0  0
    8.4683    2.6534    2.5900 C   0  0  0  0  0  0  0  0  0  0  0  0
    6.1286    4.2112   -0.9424 C   0  0  0  0  0  0  0  0  0  0  0  0
    5.2773    5.0653   -1.6648 C   0  0  0  0  0  0  0  0  0  0  0  0
    4.3876    5.9205   -1.0172 C   0  0  0  0  0  0  0  0  0  0  0  0
    4.3315    5.9385    0.3726 C   0  0  0  0  0  0  0  0  0  0  0  0
    5.1653    5.1014    1.1118 C   0  0  0  0  0  0  0  0  0  0  0  0
    6.0703    4.2307    0.4841 C   0  0  0  0  0  0  0  0  0  0  0  0
    6.8001    3.4457   -3.0851 F   0  0  0  0  0  0  0  0  0  0  0  0
    7.0597    3.3192   -1.7326 C   0  0  0  0  0  0  0  0  0  0  0  0
    8.3842    3.6667   -1.5189 F   0  0  0  0  0  0  0  0  0  0  0  0
    6.8974    2.0026   -1.3414 F   0  0  0  0  0  0  0  0  0  0  0  0
    9.7465    2.5304    3.2992 C   0  0  0  0  0  0  0  0  0  0  0  0
    9.8019    2.7311    4.5423 O   0  0  0  0  0  0  0  0  0  0  0  0
   10.9279    2.1830    2.5790 N   0  0  0  0  0  0  0  0  0  0  0  0
   12.1180    2.0640    3.2124 O   0  0  0  0  0  0  0  0  0  0  0  0
   10.8769    2.0278    1.6081 H   0  0  0  0  0  0  0  0  0  0  0  0
   12.0009    2.2470    4.1578 H   0  0  0  0  0  0  0  0  0  0  0  0
 12 13  1  0  0  0
 13 14  1  0  0  0
 13 15  1  0  0  0
 13  6  1  0  0  0
  6  7  2  0  0  0
  6 11  1  0  0  0
  7  8  1  0  0  0
  8  9  2  0  0  0
  9 10  1  0  0  0
 10 11  2  0  0  0
 11  1  1  0  0  0
  1  2  2  0  0  0
  1  3  1  0  0  0
  2  5  1  0  0  0
  3  4  1  0  0  0
  4  5  2  0  0  0
  5 16  1  0  0  0
 16 18  1  0  0  0
 17 16  2  0  0  0
 19 18  1  0  0  0
 18 20  1  0  0  0
 19 21  1  0  0  0
M  END
> <minimizedAffinity>
-6.99062

$$$$
4A6V_IKY_A_1268


 21 22  0  0  0  0  0  0  0  0999 V2000
    9.3299    1.1498   -0.9224 C   0  0  0  0  0  0  0  0  0  0  0  0
    8.1377    1.3083   -1.5287 N   0  0  0  0  0  0  0  0  0  0  0  0
    9.4006    1.8221    0.2068 O   0  0  0  0  0  0  0  0  0  0  0  0
    8.2631    2.4489    0.3912 C   0  0  0  0  0  0  0  0  0  0  0  0
    7.4743    2.1277   -0.6934 C   0  0  0  0  0  0  0  0  0  0  0  0
   11.3566    0.7209   -2.4681 C   0  0  0  0  0  0  0  0  0  0  0  0
   12.3738   -0.1695   -2.8539 C   0  0  0  0  0  0  0  0  0  0  0  0
   12.5107   -1.4192   -2.2525 C   0  0  0  0  0  0  0  0  0  0  0  0
   11.6285   -1.8053   -1.2486 C   0  0  0  0  0  0  0  0  0  0  0  0
   10.6113   -0.9406   -0.8482 C   0  0  0  0  0  0  0  0  0  0  0  0
   10.4516    0.3236   -1.4377 C   0  0  0  0  0  0  0  0  0  0  0  0
   12.5281    2.6655   -3.1566 F   0  0  0  0  0  0  0  0  0  0  0  0
   11.2876    2.0545   -3.1779 C   0  0  0  0  0  0  0  0  0  0  0  0
   10.9140    1.8955   -4.5031 F   0  0  0  0  0  0  0  0  0  0  0  0
   10.3500    2.8669   -2.5666 F   0  0  0  0  0  0  0  0  0  0  0  0
    6.1048    2.5982   -0.9273 C   0  0  0  0  0  0  0  0  0  0  0  0
    5.7179    2.8625   -2.0974 O   0  0  0  0  0  0  0  0  0  0  0  0
    5.2104    2.7564    0.1728 N   0  0  0  0  0  0  0  0  0  0  0  0
    3.9424    3.1890   -0.0192 O   0  0  0  0  0  0  0  0  0  0  0  0
    5.5196    2.5480    1.0840 H   0  0  0  0  0  0  0  0  0  0  0  0
    3.7951    3.3492   -0.9645 H   0  0  0  0  0  0  0  0  0  0  0  0
 12 13  1  0  0  0
 13 14  1  0  0  0
 13 15  1  0  0  0
 13  6  1  0  0  0
  6  7  2  0  0  0
  6 11  1  0  0  0
  7  8  1  0  0  0
  8  9  2  0  0  0
  9 10  1  0  0  0
 10 11  2  0  0  0
 11  1  1  0  0  0
  1  2  2  0  0  0
  1  3  1  0  0  0
  2  5  1  0  0  0
  3  4  1  0  0  0
  4  5  2  0  0  0
  5 16  1  0  0  0
 16 18  1  0  0  0
 17 16  2  0  0  0
 19 18  1  0  0  0
 18 20  1  0  0  0
 19 21  1  0  0  0
M  END
> <minimizedAffinity>
-6.88201

$$$$
4A6V_IKY_A_1268


 21 22  0  0  0  0  0  0  0  0999 V2000
    7.6562    2.8435   -0.3133 C   0  0  0  0  0  0  0  0  0  0  0  0
    7.9002    2.9639    1.0058 N   0  0  0  0  0  0  0  0  0  0  0  0
    7.8810    1.6209   -0.7455 O   0  0  0  0  0  0  0  0  0  0  0  0
    8.2806    0.8876    0.2662 C   0  0  0  0  0  0  0  0  0  0  0  0
    8.2926    1.7271    1.3602 C   0  0  0  0  0  0  0  0  0  0  0  0
    5.9867    4.6855   -1.0208 C   0  0  0  0  0  0  0  0  0  0  0  0
    5.6726    5.6953   -1.9470 C   0  0  0  0  0  0  0  0  0  0  0  0
    6.5075    5.9741   -3.0275 C   0  0  0  0  0  0  0  0  0  0  0  0
    7.6789    5.2448   -3.2040 C   0  0  0  0  0  0  0  0  0  0  0  0
    8.0127    4.2382   -2.2996 C   0  0  0  0  0  0  0  0  0  0  0  0
    7.1891    3.9375   -1.2030 C   0  0  0  0  0  0  0  0  0  0  0  0
    4.7569    3.1046    0.2506 F   0  0  0  0  0  0  0  0  0  0  0  0
    5.0196    4.4560    0.1190 C   0  0  0  0  0  0  0  0  0  0  0  0
    5.5472    4.9060    1.3190 F   0  0  0  0  0  0  0  0  0  0  0  0
    3.8435    5.1457   -0.1134 F   0  0  0  0  0  0  0  0  0  0  0  0
    8.6740    1.3511    2.7257 C   0  0  0  0  0  0  0  0  0  0  0  0
    9.2853    2.1726    3.4607 O   0  0  0  0  0  0  0  0  0  0  0  0
    8.3518    0.0527    3.2213 N   0  0  0  0  0  0  0  0  0  0  0  0
    8.6938   -0.3161    4.4778 O   0  0  0  0  0  0  0  0  0  0  0  0
    7.8742   -0.5837    2.6414 H   0  0  0  0  0  0  0  0  0  0  0  0
    9.1544    0.4167    4.9157 H   0  0  0  0  0  0  0  0  0  0  0  0
 12 13  1  0  0  0
 13 14  1  0  0  0
 13 15  1  0  0  0
 13  6  1  0  0  0
  6  7  2  0  0  0
  6 11  1  0  0  0
  7  8  1  0  0  0
  8  9  2  0  0  0
  9 10  1  0  0  0
 10 11  2  0  0  0
 11  1  1  0  0  0
  1  2  2  0  0  0
  1  3  1  0  0  0
  2  5  1  0  0  0
  3  4  1  0  0  0
  4  5  2  0  0  0
  5 16  1  0  0  0
 16 18  1  0  0  0
 17 16  2  0  0  0
 19 18  1  0  0  0
 18 20  1  0  0  0
 19 21  1  0  0  0
M  END
> <minimizedAffinity>
-6.85907

$$$$
4A6V_IKY_A_1268


 21 22  0  0  0  0  0  0  0  0999 V2000
    5.9564    3.8417    0.2119 C   0  0  0  0  0  0  0  0  0  0  0  0
    5.9714    3.2373    1.4155 N   0  0  0  0  0  0  0  0  0  0  0  0
    7.0373    3.5704   -0.4882 O   0  0  0  0  0  0  0  0  0  0  0  0
    7.8064    2.7793    0.2214 C   0  0  0  0  0  0  0  0  0  0  0  0
    7.1401    2.5715    1.4108 C   0  0  0  0  0  0  0  0  0  0  0  0
    4.0923    4.4620   -1.4677 C   0  0  0  0  0  0  0  0  0  0  0  0
    3.0916    5.3815   -1.8273 C   0  0  0  0  0  0  0  0  0  0  0  0
    2.8479    6.5232   -1.0662 C   0  0  0  0  0  0  0  0  0  0  0  0
    3.6041    6.7692    0.0753 C   0  0  0  0  0  0  0  0  0  0  0  0
    4.6023    5.8729    0.4531 C   0  0  0  0  0  0  0  0  0  0  0  0
    4.8679    4.7155   -0.2961 C   0  0  0  0  0  0  0  0  0  0  0  0
    4.3142    2.1030   -1.5871 F   0  0  0  0  0  0  0  0  0  0  0  0
    4.2830    3.2525   -2.3554 C   0  0  0  0  0  0  0  0  0  0  0  0
    3.2422    3.1304   -3.2623 F   0  0  0  0  0  0  0  0  0  0  0  0
    5.4595    3.3738   -3.0725 F   0  0  0  0  0  0  0  0  0  0  0  0
    7.6152    1.7471    2.5272 C   0  0  0  0  0  0  0  0  0  0  0  0
    8.6377    2.0926    3.1783 O   0  0  0  0  0  0  0  0  0  0  0  0
    6.9173    0.5526    2.8755 N   0  0  0  0  0  0  0  0  0  0  0  0
    7.3374   -0.2234    3.9017 O   0  0  0  0  0  0  0  0  0  0  0  0
    6.1194    0.2891    2.3624 H   0  0  0  0  0  0  0  0  0  0  0  0
    8.1288    0.1698    4.3015 H   0  0  0  0  0  0  0  0  0  0  0  0
 12 13  1  0  0  0
 13 14  1  0  0  0
 13 15  1  0  0  0
 13  6  1  0  0  0
  6  7  2  0  0  0
  6 11  1  0  0  0
  7  8  1  0  0  0
  8  9  2  0  0  0
  9 10  1  0  0  0
 10 11  2  0  0  0
 11  1  1  0  0  0
  1  2  2  0  0  0
  1  3  1  0  0  0
  2  5  1  0  0  0
  3  4  1  0  0  0
  4  5  2  0  0  0
  5 16  1  0  0  0
 16 18  1  0  0  0
 17 16  2  0  0  0
 19 18  1  0  0  0
 18 20  1  0  0  0
 19 21  1  0  0  0
M  END
> <minimizedAffinity>
-6.81155

$$$$
4A6V_IKY_A_1268


 21 22  0  0  0  0  0  0  0  0999 V2000
    7.9126    1.9395   -0.1392 C   0  0  0  0  0  0  0  0  0  0  0  0
    8.8554    2.0758   -1.0914 N   0  0  0  0  0  0  0  0  0  0  0  0
    8.1177    0.8753    0.6074 O   0  0  0  0  0  0  0  0  0  0  0  0
    9.1995    0.2683    0.1805 C   0  0  0  0  0  0  0  0  0  0  0  0
    9.6601    1.0187   -0.8810 C   0  0  0  0  0  0  0  0  0  0  0  0
    6.6200    3.7474    1.1805 C   0  0  0  0  0  0  0  0  0  0  0  0
    5.4771    4.5632    1.2468 C   0  0  0  0  0  0  0  0  0  0  0  0
    4.4962    4.5198    0.2577 C   0  0  0  0  0  0  0  0  0  0  0  0
    4.6397    3.6552   -0.8226 C   0  0  0  0  0  0  0  0  0  0  0  0
    5.7637    2.8359   -0.9114 C   0  0  0  0  0  0  0  0  0  0  0  0
    6.7662    2.8603    0.0713 C   0  0  0  0  0  0  0  0  0  0  0  0
    7.1011    4.6142    3.3359 F   0  0  0  0  0  0  0  0  0  0  0  0
    7.6294    3.8647    2.3005 C   0  0  0  0  0  0  0  0  0  0  0  0
    7.9625    2.6174    2.8045 F   0  0  0  0  0  0  0  0  0  0  0  0
    8.7881    4.4570    1.8318 F   0  0  0  0  0  0  0  0  0  0  0  0
   10.8537    0.7284   -1.6827 C   0  0  0  0  0  0  0  0  0  0  0  0
   11.3794    1.6334   -2.3850 O   0  0  0  0  0  0  0  0  0  0  0  0
   11.4191   -0.5813   -1.6663 N   0  0  0  0  0  0  0  0  0  0  0  0
   12.5199   -0.8721   -2.3980 O   0  0  0  0  0  0  0  0  0  0  0  0
   11.0029   -1.2831   -1.1153 H   0  0  0  0  0  0  0  0  0  0  0  0
   12.8055   -0.0807   -2.8808 H   0  0  0  0  0  0  0  0  0  0  0  0
 12 13  1  0  0  0
 13 14  1  0  0  0
 13 15  1  0  0  0
 13  6  1  0  0  0
  6  7  2  0  0  0
  6 11  1  0  0  0
  7  8  1  0  0  0
  8  9  2  0  0  0
  9 10  1  0  0  0
 10 11  2  0  0  0
 11  1  1  0  0  0
  1  2  2  0  0  0
  1  3  1  0  0  0
  2  5  1  0  0  0
  3  4  1  0  0  0
  4  5  2  0  0  0
  5 16  1  0  0  0
 16 18  1  0  0  0
 17 16  2  0  0  0
 19 18  1  0  0  0
 18 20  1  0  0  0
 19 21  1  0  0  0
M  END
> <minimizedAffinity>
-6.79378

$$$$
4A6V_IKY_A_1268


 21 22  0  0  0  0  0  0  0  0999 V2000
    7.4962    1.7733    1.0621 C   0  0  0  0  0  0  0  0  0  0  0  0
    6.8666    2.6677    0.2762 N   0  0  0  0  0  0  0  0  0  0  0  0
    6.8746    1.6035    2.2097 O   0  0  0  0  0  0  0  0  0  0  0  0
    5.8141    2.3754    2.2280 C   0  0  0  0  0  0  0  0  0  0  0  0
    5.8095    3.0402    1.0198 C   0  0  0  0  0  0  0  0  0  0  0  0
    9.9707    1.1252    1.4330 C   0  0  0  0  0  0  0  0  0  0  0  0
   11.0720    0.3792    0.9780 C   0  0  0  0  0  0  0  0  0  0  0  0
   10.9843   -0.4256   -0.1564 C   0  0  0  0  0  0  0  0  0  0  0  0
    9.7876   -0.5006   -0.8618 C   0  0  0  0  0  0  0  0  0  0  0  0
    8.6812    0.2295   -0.4312 C   0  0  0  0  0  0  0  0  0  0  0  0
    8.7430    1.0476    0.7082 C   0  0  0  0  0  0  0  0  0  0  0  0
    9.5393    1.3701    3.7529 F   0  0  0  0  0  0  0  0  0  0  0  0
   10.1617    1.9695    2.6731 C   0  0  0  0  0  0  0  0  0  0  0  0
   11.5062    2.1083    2.9797 F   0  0  0  0  0  0  0  0  0  0  0  0
    9.6397    3.2338    2.4686 F   0  0  0  0  0  0  0  0  0  0  0  0
    4.8074    4.0183    0.5828 C   0  0  0  0  0  0  0  0  0  0  0  0
    3.8911    3.6734   -0.2110 O   0  0  0  0  0  0  0  0  0  0  0  0
    4.8716    5.3618    1.0582 N   0  0  0  0  0  0  0  0  0  0  0  0
    3.9579    6.2811    0.6685 O   0  0  0  0  0  0  0  0  0  0  0  0
    5.5902    5.6238    1.6781 H   0  0  0  0  0  0  0  0  0  0  0  0
    3.3223    5.8687    0.0628 H   0  0  0  0  0  0  0  0  0  0  0  0
 12 13  1  0  0  0
 13 14  1  0  0  0
 13 15  1  0  0  0
 13  6  1  0  0  0
  6  7  2  0  0  0
  6 11  1  0  0  0
  7  8  1  0  0  0
  8  9  2  0  0  0
  9 10  1  0  0  0
 10 11  2  0  0  0
 11  1  1  0  0  0
  1  2  2  0  0  0
  1  3  1  0  0  0
  2  5  1  0  0  0
  3  4  1  0  0  0
  4  5  2  0  0  0
  5 16  1  0  0  0
 16 18  1  0  0  0
 17 16  2  0  0  0
 19 18  1  0  0  0
 18 20  1  0  0  0
 19 21  1  0  0  0
M  END
> <minimizedAffinity>
-6.54443

$$$$
